/*--------------------------------*- C++ -*----------------------------------*\
| =========                 |                                                 |
| \\      /  F ield         | OpenFOAM: The Open Source CFD Toolbox           |
|  \\    /   O peration     | Version:  avalanche                             |
|   \\  /    A nd           | https://develop.openfoam.com/Community/avalanche|
|    \\/     M anipulation  |                                                 |
\*---------------------------------------------------------------------------*/
FoamFile
{
    version     2.0;
    format      ascii;
    class       areaScalarField;
    object      h;
}
// * * * * * * * * * * * * * * * * * * * * * * * * * * * * * * * * * * * * * //

dimensions      [0 1 0 0 0 0 0];

internalField   uniform 0.20;

boundaryField
{
    inlet
    {
        type fixedValue;
        value uniform 0.20;
    }

    outlet
    {
        type zeroGradient;
    }

    side
    {
        type zeroGradient;
        // type zeroGradient;
    }

    frontBlockWall
    {
        type zeroGradient;
    }

    rearBlockWall
    {
        type zeroGradient;
    }

    sideBlockWall
    {
        type zeroGradient;
    }
}

// ************************************************************************* //
